test_networks/archived/ieee730_1ph_rahul/Node730DG30/Opendss/Loads.dss
New Load.L1 bus1=1 model=1 phases=1 conn=wye kv=0.24 kW=0.000000 kvar=0.000000 Vminpu=0.1 Vmaxpu=1.1
New Load.L2 bus1=2 model=1 phases=1 conn=wye kv=0.24 kW=0.000000 kvar=0.000000 Vminpu=0.1 Vmaxpu=1.1
New Load.L3 bus1=3 model=1 phases=1 conn=wye kv=0.24 kW=0.000000 kvar=0.000000 Vminpu=0.1 Vmaxpu=1.1
New Load.L4 bus1=4 model=1 phases=1 conn=wye kv=0.24 kW=0.000000 kvar=0.000000 Vminpu=0.1 Vmaxpu=1.1
New Load.L5 bus1=5 model=1 phases=1 conn=wye kv=0.24 kW=0.000000 kvar=0.000000 Vminpu=0.1 Vmaxpu=1.1
New Load.L6 bus1=6 model=1 phases=1 conn=wye kv=0.24 kW=0.000000 kvar=0.000000 Vminpu=0.1 Vmaxpu=1.1
New Load.L7 bus1=7 model=1 phases=1 conn=wye kv=0.24 kW=0.000000 kvar=0.000000 Vminpu=0.1 Vmaxpu=1.1
New Load.L8 bus1=8 model=1 phases=1 conn=wye kv=0.24 kW=0.000000 kvar=0.000000 Vminpu=0.1 Vmaxpu=1.1
New Load.L9 bus1=9 model=1 phases=1 conn=wye kv=0.24 kW=0.000000 kvar=0.000000 Vminpu=0.1 Vmaxpu=1.1
New Load.L10 bus1=10 model=1 phases=1 conn=wye kv=0.24 kW=0.000000 kvar=0.000000 Vminpu=0.1 Vmaxpu=1.1
New Load.L11 bus1=11 model=1 phases=1 conn=wye kv=0.24 kW=0.000000 kvar=0.000000 Vminpu=0.1 Vmaxpu=1.1
New Load.L12 bus1=12 model=1 phases=1 conn=wye kv=0.24 kW=0.000000 kvar=0.000000 Vminpu=0.1 Vmaxpu=1.1
New Load.L13 bus1=13 model=1 phases=1 conn=wye kv=0.24 kW=0.000000 kvar=0.000000 Vminpu=0.1 Vmaxpu=1.1
New Load.L14 bus1=14 model=1 phases=1 conn=wye kv=0.24 kW=0.000000 kvar=0.000000 Vminpu=0.1 Vmaxpu=1.1
New Load.L15 bus1=15 model=1 phases=1 conn=wye kv=0.24 kW=0.000000 kvar=0.000000 Vminpu=0.1 Vmaxpu=1.1
New Load.L16 bus1=16 model=1 phases=1 conn=wye kv=0.24 kW=0.000000 kvar=0.000000 Vminpu=0.1 Vmaxpu=1.1
New Load.L17 bus1=17 model=1 phases=1 conn=wye kv=0.24 kW=0.000000 kvar=0.000000 Vminpu=0.1 Vmaxpu=1.1
New Load.L18 bus1=18 model=1 phases=1 conn=wye kv=0.24 kW=0.000000 kvar=0.000000 Vminpu=0.1 Vmaxpu=1.1
New Load.L19 bus1=19 model=1 phases=1 conn=wye kv=0.24 kW=0.000000 kvar=0.000000 Vminpu=0.1 Vmaxpu=1.1
New Load.L20 bus1=20 model=1 phases=1 conn=wye kv=0.24 kW=0.000000 kvar=0.000000 Vminpu=0.1 Vmaxpu=1.1
New Load.L21 bus1=21 model=1 phases=1 conn=wye kv=0.24 kW=0.000000 kvar=0.000000 Vminpu=0.1 Vmaxpu=1.1
New Load.L22 bus1=22 model=1 phases=1 conn=wye kv=0.24 kW=0.000000 kvar=0.000000 Vminpu=0.1 Vmaxpu=1.1
New Load.L23 bus1=23 model=1 phases=1 conn=wye kv=0.24 kW=0.000000 kvar=0.000000 Vminpu=0.1 Vmaxpu=1.1
New Load.L24 bus1=24 model=1 phases=1 conn=wye kv=0.24 kW=0.000000 kvar=0.000000 Vminpu=0.1 Vmaxpu=1.1
New Load.L25 bus1=25 model=1 phases=1 conn=wye kv=0.24 kW=0.000000 kvar=0.000000 Vminpu=0.1 Vmaxpu=1.1
New Load.L26 bus1=26 model=1 phases=1 conn=wye kv=0.24 kW=0.000000 kvar=0.000000 Vminpu=0.1 Vmaxpu=1.1
New Load.L27 bus1=27 model=1 phases=1 conn=wye kv=0.24 kW=0.000000 kvar=0.000000 Vminpu=0.1 Vmaxpu=1.1
New Load.L28 bus1=28 model=1 phases=1 conn=wye kv=0.24 kW=0.000000 kvar=0.000000 Vminpu=0.1 Vmaxpu=1.1
New Load.L29 bus1=29 model=1 phases=1 conn=wye kv=0.24 kW=0.000000 kvar=0.000000 Vminpu=0.1 Vmaxpu=1.1
New Load.L30 bus1=30 model=1 phases=1 conn=wye kv=0.24 kW=0.000000 kvar=0.000000 Vminpu=0.1 Vmaxpu=1.1
New Load.L31 bus1=31 model=1 phases=1 conn=wye kv=0.24 kW=0.000000 kvar=0.000000 Vminpu=0.1 Vmaxpu=1.1
New Load.L32 bus1=32 model=1 phases=1 conn=wye kv=0.24 kW=0.000000 kvar=0.000000 Vminpu=0.1 Vmaxpu=1.1
New Load.L33 bus1=33 model=1 phases=1 conn=wye kv=0.24 kW=0.000000 kvar=0.000000 Vminpu=0.1 Vmaxpu=1.1
New Load.L34 bus1=34 model=1 phases=1 conn=wye kv=0.24 kW=0.000000 kvar=0.000000 Vminpu=0.1 Vmaxpu=1.1
New Load.L35 bus1=35 model=1 phases=1 conn=wye kv=0.24 kW=0.000000 kvar=0.000000 Vminpu=0.1 Vmaxpu=1.1
New Load.L36 bus1=36 model=1 phases=1 conn=wye kv=0.24 kW=0.000000 kvar=0.000000 Vminpu=0.1 Vmaxpu=1.1
New Load.L37 bus1=37 model=1 phases=1 conn=wye kv=0.24 kW=0.000000 kvar=0.000000 Vminpu=0.1 Vmaxpu=1.1
New Load.L38 bus1=38 model=1 phases=1 conn=wye kv=0.24 kW=0.000000 kvar=0.000000 Vminpu=0.1 Vmaxpu=1.1
New Load.L39 bus1=39 model=1 phases=1 conn=wye kv=0.24 kW=0.000000 kvar=0.000000 Vminpu=0.1 Vmaxpu=1.1
New Load.L40 bus1=40 model=1 phases=1 conn=wye kv=0.24 kW=0.000000 kvar=0.000000 Vminpu=0.1 Vmaxpu=1.1
New Load.L41 bus1=41 model=1 phases=1 conn=wye kv=0.24 kW=0.831000 kvar=0.277000 Vminpu=0.1 Vmaxpu=1.1
New Load.L42 bus1=42 model=1 phases=1 conn=wye kv=0.24 kW=0.734000 kvar=0.245000 Vminpu=0.1 Vmaxpu=1.1
New Load.L43 bus1=43 model=1 phases=1 conn=wye kv=0.24 kW=0.691000 kvar=0.230000 Vminpu=0.1 Vmaxpu=1.1
New Load.L44 bus1=44 model=1 phases=1 conn=wye kv=0.24 kW=0.876000 kvar=0.292000 Vminpu=0.1 Vmaxpu=1.1
New Load.L45 bus1=45 model=1 phases=1 conn=wye kv=0.24 kW=0.912000 kvar=0.304000 Vminpu=0.1 Vmaxpu=1.1
New Load.L46 bus1=46 model=1 phases=1 conn=wye kv=0.24 kW=0.692000 kvar=0.231000 Vminpu=0.1 Vmaxpu=1.1
New Load.L47 bus1=47 model=1 phases=1 conn=wye kv=0.24 kW=0.792000 kvar=0.264000 Vminpu=0.1 Vmaxpu=1.1
New Load.L48 bus1=48 model=1 phases=1 conn=wye kv=0.24 kW=1.512000 kvar=0.504000 Vminpu=0.1 Vmaxpu=1.1
New Load.L49 bus1=49 model=1 phases=1 conn=wye kv=0.24 kW=1.250000 kvar=0.417000 Vminpu=0.1 Vmaxpu=1.1
New Load.L50 bus1=50 model=1 phases=1 conn=wye kv=0.24 kW=0.822000 kvar=0.274000 Vminpu=0.1 Vmaxpu=1.1
New Load.L51 bus1=51 model=1 phases=1 conn=wye kv=0.24 kW=0.843000 kvar=0.281000 Vminpu=0.1 Vmaxpu=1.1
New Load.L52 bus1=52 model=1 phases=1 conn=wye kv=0.24 kW=0.884000 kvar=0.295000 Vminpu=0.1 Vmaxpu=1.1
New Load.L53 bus1=53 model=1 phases=1 conn=wye kv=0.24 kW=0.000000 kvar=0.000000 Vminpu=0.1 Vmaxpu=1.1
New Load.L54 bus1=54 model=1 phases=1 conn=wye kv=0.24 kW=0.000000 kvar=0.000000 Vminpu=0.1 Vmaxpu=1.1
New Load.L55 bus1=55 model=1 phases=1 conn=wye kv=0.24 kW=0.000000 kvar=0.000000 Vminpu=0.1 Vmaxpu=1.1
New Load.L56 bus1=56 model=1 phases=1 conn=wye kv=0.24 kW=0.000000 kvar=0.000000 Vminpu=0.1 Vmaxpu=1.1
New Load.L57 bus1=57 model=1 phases=1 conn=wye kv=0.24 kW=0.000000 kvar=0.000000 Vminpu=0.1 Vmaxpu=1.1
New Load.L58 bus1=58 model=1 phases=1 conn=wye kv=0.24 kW=0.000000 kvar=0.000000 Vminpu=0.1 Vmaxpu=1.1
New Load.L59 bus1=59 model=1 phases=1 conn=wye kv=0.24 kW=1.038000 kvar=0.346000 Vminpu=0.1 Vmaxpu=1.1
New Load.L60 bus1=60 model=1 phases=1 conn=wye kv=0.24 kW=2.373000 kvar=0.791000 Vminpu=0.1 Vmaxpu=1.1
New Load.L61 bus1=61 model=1 phases=1 conn=wye kv=0.24 kW=1.510000 kvar=0.503000 Vminpu=0.1 Vmaxpu=1.1
New Load.L62 bus1=62 model=1 phases=1 conn=wye kv=0.24 kW=1.617000 kvar=0.539000 Vminpu=0.1 Vmaxpu=1.1
New Load.L63 bus1=63 model=1 phases=1 conn=wye kv=0.24 kW=1.894000 kvar=0.631000 Vminpu=0.1 Vmaxpu=1.1
New Load.L64 bus1=64 model=1 phases=1 conn=wye kv=0.24 kW=1.321000 kvar=0.440000 Vminpu=0.1 Vmaxpu=1.1
New Load.L65 bus1=65 model=1 phases=1 conn=wye kv=0.24 kW=2.586000 kvar=0.862000 Vminpu=0.1 Vmaxpu=1.1
New Load.L66 bus1=66 model=1 phases=1 conn=wye kv=0.24 kW=1.267000 kvar=0.422000 Vminpu=0.1 Vmaxpu=1.1
New Load.L67 bus1=67 model=1 phases=1 conn=wye kv=0.24 kW=1.275000 kvar=0.425000 Vminpu=0.1 Vmaxpu=1.1
New Load.L68 bus1=68 model=1 phases=1 conn=wye kv=0.24 kW=1.950000 kvar=0.650000 Vminpu=0.1 Vmaxpu=1.1
New Load.L69 bus1=69 model=1 phases=1 conn=wye kv=0.24 kW=0.000000 kvar=0.000000 Vminpu=0.1 Vmaxpu=1.1
New Load.L70 bus1=70 model=1 phases=1 conn=wye kv=0.24 kW=0.000000 kvar=0.000000 Vminpu=0.1 Vmaxpu=1.1
New Load.L71 bus1=71 model=1 phases=1 conn=wye kv=0.24 kW=0.000000 kvar=0.000000 Vminpu=0.1 Vmaxpu=1.1
New Load.L72 bus1=72 model=1 phases=1 conn=wye kv=0.24 kW=0.000000 kvar=0.000000 Vminpu=0.1 Vmaxpu=1.1
New Load.L73 bus1=73 model=1 phases=1 conn=wye kv=0.24 kW=0.000000 kvar=0.000000 Vminpu=0.1 Vmaxpu=1.1
New Load.L74 bus1=74 model=1 phases=1 conn=wye kv=0.24 kW=2.034000 kvar=0.678000 Vminpu=0.1 Vmaxpu=1.1
New Load.L75 bus1=75 model=1 phases=1 conn=wye kv=0.24 kW=1.349000 kvar=0.450000 Vminpu=0.1 Vmaxpu=1.1
New Load.L76 bus1=76 model=1 phases=1 conn=wye kv=0.24 kW=1.679000 kvar=0.560000 Vminpu=0.1 Vmaxpu=1.1
New Load.L77 bus1=77 model=1 phases=1 conn=wye kv=0.24 kW=1.324000 kvar=0.441000 Vminpu=0.1 Vmaxpu=1.1
New Load.L78 bus1=78 model=1 phases=1 conn=wye kv=0.24 kW=1.377000 kvar=0.459000 Vminpu=0.1 Vmaxpu=1.1
New Load.L79 bus1=79 model=1 phases=1 conn=wye kv=0.24 kW=1.808000 kvar=0.603000 Vminpu=0.1 Vmaxpu=1.1
New Load.L80 bus1=80 model=1 phases=1 conn=wye kv=0.24 kW=2.042000 kvar=0.681000 Vminpu=0.1 Vmaxpu=1.1
New Load.L81 bus1=81 model=1 phases=1 conn=wye kv=0.24 kW=2.015000 kvar=0.672000 Vminpu=0.1 Vmaxpu=1.1
New Load.L82 bus1=82 model=1 phases=1 conn=wye kv=0.24 kW=0.000000 kvar=0.000000 Vminpu=0.1 Vmaxpu=1.1
New Load.L83 bus1=83 model=1 phases=1 conn=wye kv=0.24 kW=0.000000 kvar=0.000000 Vminpu=0.1 Vmaxpu=1.1
New Load.L84 bus1=84 model=1 phases=1 conn=wye kv=0.24 kW=0.000000 kvar=0.000000 Vminpu=0.1 Vmaxpu=1.1
New Load.L85 bus1=85 model=1 phases=1 conn=wye kv=0.24 kW=0.000000 kvar=0.000000 Vminpu=0.1 Vmaxpu=1.1
New Load.L86 bus1=86 model=1 phases=1 conn=wye kv=0.24 kW=0.000000 kvar=0.000000 Vminpu=0.1 Vmaxpu=1.1
New Load.L87 bus1=87 model=1 phases=1 conn=wye kv=0.24 kW=1.387000 kvar=0.462000 Vminpu=0.1 Vmaxpu=1.1
New Load.L88 bus1=88 model=1 phases=1 conn=wye kv=0.24 kW=1.363000 kvar=0.454000 Vminpu=0.1 Vmaxpu=1.1
New Load.L89 bus1=89 model=1 phases=1 conn=wye kv=0.24 kW=1.301000 kvar=0.434000 Vminpu=0.1 Vmaxpu=1.1
New Load.L90 bus1=90 model=1 phases=1 conn=wye kv=0.24 kW=1.339000 kvar=0.446000 Vminpu=0.1 Vmaxpu=1.1
New Load.L91 bus1=91 model=1 phases=1 conn=wye kv=0.24 kW=1.376000 kvar=0.459000 Vminpu=0.1 Vmaxpu=1.1
New Load.L92 bus1=92 model=1 phases=1 conn=wye kv=0.24 kW=1.206000 kvar=0.402000 Vminpu=0.1 Vmaxpu=1.1
New Load.L93 bus1=93 model=1 phases=1 conn=wye kv=0.24 kW=1.384000 kvar=0.461000 Vminpu=0.1 Vmaxpu=1.1
New Load.L94 bus1=94 model=1 phases=1 conn=wye kv=0.24 kW=2.939000 kvar=0.980000 Vminpu=0.1 Vmaxpu=1.1
New Load.L95 bus1=95 model=1 phases=1 conn=wye kv=0.24 kW=0.000000 kvar=0.000000 Vminpu=0.1 Vmaxpu=1.1
New Load.L96 bus1=96 model=1 phases=1 conn=wye kv=0.24 kW=0.000000 kvar=0.000000 Vminpu=0.1 Vmaxpu=1.1
New Load.L97 bus1=97 model=1 phases=1 conn=wye kv=0.24 kW=0.000000 kvar=0.000000 Vminpu=0.1 Vmaxpu=1.1
New Load.L98 bus1=98 model=1 phases=1 conn=wye kv=0.24 kW=0.000000 kvar=0.000000 Vminpu=0.1 Vmaxpu=1.1
New Load.L99 bus1=99 model=1 phases=1 conn=wye kv=0.24 kW=0.000000 kvar=0.000000 Vminpu=0.1 Vmaxpu=1.1
New Load.L100 bus1=100 model=1 phases=1 conn=wye kv=0.24 kW=0.983000 kvar=0.328000 Vminpu=0.1 Vmaxpu=1.1
New Load.L101 bus1=101 model=1 phases=1 conn=wye kv=0.24 kW=2.582000 kvar=0.861000 Vminpu=0.1 Vmaxpu=1.1
New Load.L102 bus1=102 model=1 phases=1 conn=wye kv=0.24 kW=2.168000 kvar=0.723000 Vminpu=0.1 Vmaxpu=1.1
New Load.L103 bus1=103 model=1 phases=1 conn=wye kv=0.24 kW=1.496000 kvar=0.499000 Vminpu=0.1 Vmaxpu=1.1
New Load.L104 bus1=104 model=1 phases=1 conn=wye kv=0.24 kW=1.570000 kvar=0.523000 Vminpu=0.1 Vmaxpu=1.1
New Load.L105 bus1=105 model=1 phases=1 conn=wye kv=0.24 kW=2.161000 kvar=0.720000 Vminpu=0.1 Vmaxpu=1.1
New Load.L106 bus1=106 model=1 phases=1 conn=wye kv=0.24 kW=2.857000 kvar=0.952000 Vminpu=0.1 Vmaxpu=1.1
New Load.L107 bus1=107 model=1 phases=1 conn=wye kv=0.24 kW=0.692000 kvar=0.231000 Vminpu=0.1 Vmaxpu=1.1
New Load.L108 bus1=108 model=1 phases=1 conn=wye kv=0.24 kW=0.000000 kvar=0.000000 Vminpu=0.1 Vmaxpu=1.1
New Load.L109 bus1=109 model=1 phases=1 conn=wye kv=0.24 kW=0.000000 kvar=0.000000 Vminpu=0.1 Vmaxpu=1.1
New Load.L110 bus1=110 model=1 phases=1 conn=wye kv=0.24 kW=0.000000 kvar=0.000000 Vminpu=0.1 Vmaxpu=1.1
New Load.L111 bus1=111 model=1 phases=1 conn=wye kv=0.24 kW=0.000000 kvar=0.000000 Vminpu=0.1 Vmaxpu=1.1
New Load.L112 bus1=112 model=1 phases=1 conn=wye kv=0.24 kW=0.000000 kvar=0.000000 Vminpu=0.1 Vmaxpu=1.1
New Load.L113 bus1=113 model=1 phases=1 conn=wye kv=0.24 kW=0.000000 kvar=0.000000 Vminpu=0.1 Vmaxpu=1.1
New Load.L114 bus1=114 model=1 phases=1 conn=wye kv=0.24 kW=0.000000 kvar=0.000000 Vminpu=0.1 Vmaxpu=1.1
New Load.L115 bus1=115 model=1 phases=1 conn=wye kv=0.24 kW=1.561000 kvar=0.520000 Vminpu=0.1 Vmaxpu=1.1
New Load.L116 bus1=116 model=1 phases=1 conn=wye kv=0.24 kW=0.846000 kvar=0.282000 Vminpu=0.1 Vmaxpu=1.1
New Load.L117 bus1=117 model=1 phases=1 conn=wye kv=0.24 kW=0.795000 kvar=0.265000 Vminpu=0.1 Vmaxpu=1.1
New Load.L118 bus1=118 model=1 phases=1 conn=wye kv=0.24 kW=2.373000 kvar=0.791000 Vminpu=0.1 Vmaxpu=1.1
New Load.L119 bus1=119 model=1 phases=1 conn=wye kv=0.24 kW=2.066000 kvar=0.689000 Vminpu=0.1 Vmaxpu=1.1
New Load.L120 bus1=120 model=1 phases=1 conn=wye kv=0.24 kW=0.756000 kvar=0.252000 Vminpu=0.1 Vmaxpu=1.1
New Load.L121 bus1=121 model=1 phases=1 conn=wye kv=0.24 kW=0.700000 kvar=0.233000 Vminpu=0.1 Vmaxpu=1.1
New Load.L122 bus1=122 model=1 phases=1 conn=wye kv=0.24 kW=0.690000 kvar=0.230000 Vminpu=0.1 Vmaxpu=1.1
New Load.L123 bus1=123 model=1 phases=1 conn=wye kv=0.24 kW=0.983000 kvar=0.328000 Vminpu=0.1 Vmaxpu=1.1
New Load.L124 bus1=124 model=1 phases=1 conn=wye kv=0.24 kW=0.797000 kvar=0.266000 Vminpu=0.1 Vmaxpu=1.1
New Load.L125 bus1=125 model=1 phases=1 conn=wye kv=0.24 kW=1.345000 kvar=0.448000 Vminpu=0.1 Vmaxpu=1.1
New Load.L126 bus1=126 model=1 phases=1 conn=wye kv=0.24 kW=1.126000 kvar=0.375000 Vminpu=0.1 Vmaxpu=1.1
New Load.L127 bus1=127 model=1 phases=1 conn=wye kv=0.24 kW=0.000000 kvar=0.000000 Vminpu=0.1 Vmaxpu=1.1
New Load.L128 bus1=128 model=1 phases=1 conn=wye kv=0.24 kW=0.000000 kvar=0.000000 Vminpu=0.1 Vmaxpu=1.1
New Load.L129 bus1=129 model=1 phases=1 conn=wye kv=0.24 kW=0.000000 kvar=0.000000 Vminpu=0.1 Vmaxpu=1.1
New Load.L130 bus1=130 model=1 phases=1 conn=wye kv=0.24 kW=0.000000 kvar=0.000000 Vminpu=0.1 Vmaxpu=1.1
New Load.L131 bus1=131 model=1 phases=1 conn=wye kv=0.24 kW=0.000000 kvar=0.000000 Vminpu=0.1 Vmaxpu=1.1
New Load.L132 bus1=132 model=1 phases=1 conn=wye kv=0.24 kW=0.000000 kvar=0.000000 Vminpu=0.1 Vmaxpu=1.1
New Load.L133 bus1=133 model=1 phases=1 conn=wye kv=0.24 kW=0.000000 kvar=0.000000 Vminpu=0.1 Vmaxpu=1.1
New Load.L134 bus1=134 model=1 phases=1 conn=wye kv=0.24 kW=1.550000 kvar=0.517000 Vminpu=0.1 Vmaxpu=1.1
New Load.L135 bus1=135 model=1 phases=1 conn=wye kv=0.24 kW=0.733000 kvar=0.244000 Vminpu=0.1 Vmaxpu=1.1
New Load.L136 bus1=136 model=1 phases=1 conn=wye kv=0.24 kW=0.897000 kvar=0.299000 Vminpu=0.1 Vmaxpu=1.1
New Load.L137 bus1=137 model=1 phases=1 conn=wye kv=0.24 kW=0.710000 kvar=0.237000 Vminpu=0.1 Vmaxpu=1.1
New Load.L138 bus1=138 model=1 phases=1 conn=wye kv=0.24 kW=0.895000 kvar=0.298000 Vminpu=0.1 Vmaxpu=1.1
New Load.L139 bus1=139 model=1 phases=1 conn=wye kv=0.24 kW=0.726000 kvar=0.242000 Vminpu=0.1 Vmaxpu=1.1
New Load.L140 bus1=140 model=1 phases=1 conn=wye kv=0.24 kW=0.646000 kvar=0.215000 Vminpu=0.1 Vmaxpu=1.1
New Load.L141 bus1=141 model=1 phases=1 conn=wye kv=0.24 kW=0.777000 kvar=0.259000 Vminpu=0.1 Vmaxpu=1.1
New Load.L142 bus1=142 model=1 phases=1 conn=wye kv=0.24 kW=0.845000 kvar=0.282000 Vminpu=0.1 Vmaxpu=1.1
New Load.L143 bus1=143 model=1 phases=1 conn=wye kv=0.24 kW=0.803000 kvar=0.268000 Vminpu=0.1 Vmaxpu=1.1
New Load.L144 bus1=144 model=1 phases=1 conn=wye kv=0.24 kW=0.952000 kvar=0.317000 Vminpu=0.1 Vmaxpu=1.1
New Load.L145 bus1=145 model=1 phases=1 conn=wye kv=0.24 kW=0.727000 kvar=0.242000 Vminpu=0.1 Vmaxpu=1.1
New Load.L146 bus1=146 model=1 phases=1 conn=wye kv=0.24 kW=0.000000 kvar=0.000000 Vminpu=0.1 Vmaxpu=1.1
New Load.L147 bus1=147 model=1 phases=1 conn=wye kv=0.24 kW=0.000000 kvar=0.000000 Vminpu=0.1 Vmaxpu=1.1
New Load.L148 bus1=148 model=1 phases=1 conn=wye kv=0.24 kW=0.000000 kvar=0.000000 Vminpu=0.1 Vmaxpu=1.1
New Load.L149 bus1=149 model=1 phases=1 conn=wye kv=0.24 kW=0.000000 kvar=0.000000 Vminpu=0.1 Vmaxpu=1.1
New Load.L150 bus1=150 model=1 phases=1 conn=wye kv=0.24 kW=0.000000 kvar=0.000000 Vminpu=0.1 Vmaxpu=1.1
New Load.L151 bus1=151 model=1 phases=1 conn=wye kv=0.24 kW=0.000000 kvar=0.000000 Vminpu=0.1 Vmaxpu=1.1
New Load.L152 bus1=152 model=1 phases=1 conn=wye kv=0.24 kW=0.000000 kvar=0.000000 Vminpu=0.1 Vmaxpu=1.1
New Load.L153 bus1=153 model=1 phases=1 conn=wye kv=0.24 kW=0.673000 kvar=0.224000 Vminpu=0.1 Vmaxpu=1.1
New Load.L154 bus1=154 model=1 phases=1 conn=wye kv=0.24 kW=1.106000 kvar=0.369000 Vminpu=0.1 Vmaxpu=1.1
New Load.L155 bus1=155 model=1 phases=1 conn=wye kv=0.24 kW=1.400000 kvar=0.467000 Vminpu=0.1 Vmaxpu=1.1
New Load.L156 bus1=156 model=1 phases=1 conn=wye kv=0.24 kW=1.523000 kvar=0.508000 Vminpu=0.1 Vmaxpu=1.1
New Load.L157 bus1=157 model=1 phases=1 conn=wye kv=0.24 kW=2.151000 kvar=0.717000 Vminpu=0.1 Vmaxpu=1.1
New Load.L158 bus1=158 model=1 phases=1 conn=wye kv=0.24 kW=0.777000 kvar=0.259000 Vminpu=0.1 Vmaxpu=1.1
New Load.L159 bus1=159 model=1 phases=1 conn=wye kv=0.24 kW=0.723000 kvar=0.241000 Vminpu=0.1 Vmaxpu=1.1
New Load.L160 bus1=160 model=1 phases=1 conn=wye kv=0.24 kW=0.648000 kvar=0.216000 Vminpu=0.1 Vmaxpu=1.1
New Load.L161 bus1=161 model=1 phases=1 conn=wye kv=0.24 kW=0.698000 kvar=0.233000 Vminpu=0.1 Vmaxpu=1.1
New Load.L162 bus1=162 model=1 phases=1 conn=wye kv=0.24 kW=0.740000 kvar=0.247000 Vminpu=0.1 Vmaxpu=1.1
New Load.L163 bus1=163 model=1 phases=1 conn=wye kv=0.24 kW=0.892000 kvar=0.297000 Vminpu=0.1 Vmaxpu=1.1
New Load.L164 bus1=164 model=1 phases=1 conn=wye kv=0.24 kW=0.746000 kvar=0.249000 Vminpu=0.1 Vmaxpu=1.1
New Load.L165 bus1=165 model=1 phases=1 conn=wye kv=0.24 kW=0.000000 kvar=0.000000 Vminpu=0.1 Vmaxpu=1.1
New Load.L166 bus1=166 model=1 phases=1 conn=wye kv=0.24 kW=0.000000 kvar=0.000000 Vminpu=0.1 Vmaxpu=1.1
New Load.L167 bus1=167 model=1 phases=1 conn=wye kv=0.24 kW=0.000000 kvar=0.000000 Vminpu=0.1 Vmaxpu=1.1
New Load.L168 bus1=168 model=1 phases=1 conn=wye kv=0.24 kW=0.000000 kvar=0.000000 Vminpu=0.1 Vmaxpu=1.1
New Load.L169 bus1=169 model=1 phases=1 conn=wye kv=0.24 kW=0.000000 kvar=0.000000 Vminpu=0.1 Vmaxpu=1.1
New Load.L170 bus1=170 model=1 phases=1 conn=wye kv=0.24 kW=0.000000 kvar=0.000000 Vminpu=0.1 Vmaxpu=1.1
New Load.L171 bus1=171 model=1 phases=1 conn=wye kv=0.24 kW=0.000000 kvar=0.000000 Vminpu=0.1 Vmaxpu=1.1
New Load.L172 bus1=172 model=1 phases=1 conn=wye kv=0.24 kW=1.269000 kvar=0.423000 Vminpu=0.1 Vmaxpu=1.1
New Load.L173 bus1=173 model=1 phases=1 conn=wye kv=0.24 kW=0.890000 kvar=0.297000 Vminpu=0.1 Vmaxpu=1.1
New Load.L174 bus1=174 model=1 phases=1 conn=wye kv=0.24 kW=1.491000 kvar=0.497000 Vminpu=0.1 Vmaxpu=1.1
New Load.L175 bus1=175 model=1 phases=1 conn=wye kv=0.24 kW=1.448000 kvar=0.483000 Vminpu=0.1 Vmaxpu=1.1
New Load.L176 bus1=176 model=1 phases=1 conn=wye kv=0.24 kW=0.828000 kvar=0.276000 Vminpu=0.1 Vmaxpu=1.1
New Load.L177 bus1=177 model=1 phases=1 conn=wye kv=0.24 kW=0.655000 kvar=0.218000 Vminpu=0.1 Vmaxpu=1.1
New Load.L178 bus1=178 model=1 phases=1 conn=wye kv=0.24 kW=0.637000 kvar=0.212000 Vminpu=0.1 Vmaxpu=1.1
New Load.L179 bus1=179 model=1 phases=1 conn=wye kv=0.24 kW=0.842000 kvar=0.281000 Vminpu=0.1 Vmaxpu=1.1
New Load.L180 bus1=180 model=1 phases=1 conn=wye kv=0.24 kW=1.145000 kvar=0.382000 Vminpu=0.1 Vmaxpu=1.1
New Load.L181 bus1=181 model=1 phases=1 conn=wye kv=0.24 kW=0.817000 kvar=0.272000 Vminpu=0.1 Vmaxpu=1.1
New Load.L182 bus1=182 model=1 phases=1 conn=wye kv=0.24 kW=0.928000 kvar=0.309000 Vminpu=0.1 Vmaxpu=1.1
New Load.L183 bus1=183 model=1 phases=1 conn=wye kv=0.24 kW=1.193000 kvar=0.398000 Vminpu=0.1 Vmaxpu=1.1
New Load.L184 bus1=184 model=1 phases=1 conn=wye kv=0.24 kW=0.000000 kvar=0.000000 Vminpu=0.1 Vmaxpu=1.1
New Load.L185 bus1=185 model=1 phases=1 conn=wye kv=0.24 kW=0.000000 kvar=0.000000 Vminpu=0.1 Vmaxpu=1.1
New Load.L186 bus1=186 model=1 phases=1 conn=wye kv=0.24 kW=0.000000 kvar=0.000000 Vminpu=0.1 Vmaxpu=1.1
New Load.L187 bus1=187 model=1 phases=1 conn=wye kv=0.24 kW=0.000000 kvar=0.000000 Vminpu=0.1 Vmaxpu=1.1
New Load.L188 bus1=188 model=1 phases=1 conn=wye kv=0.24 kW=0.000000 kvar=0.000000 Vminpu=0.1 Vmaxpu=1.1
New Load.L189 bus1=189 model=1 phases=1 conn=wye kv=0.24 kW=0.777000 kvar=0.259000 Vminpu=0.1 Vmaxpu=1.1
New Load.L190 bus1=190 model=1 phases=1 conn=wye kv=0.24 kW=1.355000 kvar=0.452000 Vminpu=0.1 Vmaxpu=1.1
New Load.L191 bus1=191 model=1 phases=1 conn=wye kv=0.24 kW=0.936000 kvar=0.312000 Vminpu=0.1 Vmaxpu=1.1
New Load.L192 bus1=192 model=1 phases=1 conn=wye kv=0.24 kW=1.222000 kvar=0.407000 Vminpu=0.1 Vmaxpu=1.1
New Load.L193 bus1=193 model=1 phases=1 conn=wye kv=0.24 kW=1.830000 kvar=0.610000 Vminpu=0.1 Vmaxpu=1.1
New Load.L194 bus1=194 model=1 phases=1 conn=wye kv=0.24 kW=2.224000 kvar=0.741000 Vminpu=0.1 Vmaxpu=1.1
New Load.L195 bus1=195 model=1 phases=1 conn=wye kv=0.24 kW=2.010000 kvar=0.670000 Vminpu=0.1 Vmaxpu=1.1
New Load.L196 bus1=196 model=1 phases=1 conn=wye kv=0.24 kW=2.062000 kvar=0.687000 Vminpu=0.1 Vmaxpu=1.1
New Load.L197 bus1=197 model=1 phases=1 conn=wye kv=0.24 kW=0.000000 kvar=0.000000 Vminpu=0.1 Vmaxpu=1.1
New Load.L198 bus1=198 model=1 phases=1 conn=wye kv=0.24 kW=0.000000 kvar=0.000000 Vminpu=0.1 Vmaxpu=1.1
New Load.L199 bus1=199 model=1 phases=1 conn=wye kv=0.24 kW=0.000000 kvar=0.000000 Vminpu=0.1 Vmaxpu=1.1
New Load.L200 bus1=200 model=1 phases=1 conn=wye kv=0.24 kW=0.000000 kvar=0.000000 Vminpu=0.1 Vmaxpu=1.1
...